Circuit: * C:\Users\Public\Documents\Altium\Projects\IoTAdvanced-Mesh-Gateway\Simulations\Thermistor_NTC_50k_Interface.asc

Direct Newton iteration for .op point succeeded.

Date: Mon Mar 29 15:34:10 2021
Total elapsed time: 3.024 seconds.

tnom = 27
temp = 27
method = trap
totiter = 3
traniter = 0
tranpoints = 0
accept = 0
rejected = 0
matrix size = 4
fillins = 0
solver = Normal
Matrix Compiler1: 82 bytes object code size
Matrix Compiler2: 248 bytes object code size
