Circuit: * C:\Users\Public\Documents\Altium\Projects\IoTAdvanced-Mesh+Gateway\Simulations\Thermistor_NTC_50k_Interface.asc

Direct Newton iteration for .op point succeeded.

Date: Sun Mar 28 19:43:33 2021
Total elapsed time: 2.537 seconds.

tnom = 27
temp = 27
method = trap
totiter = 3
traniter = 0
tranpoints = 0
accept = 0
rejected = 0
matrix size = 3
fillins = 0
solver = Normal
Matrix Compiler1: 50 bytes object code size
Matrix Compiler2: 175 bytes object code size
